/*--------------------------------*- C++ -*----------------------------------*\
  =========                 |
  \\      /  F ield         | OpenFOAM: The Open Source CFD Toolbox
   \\    /   O peration     | Website:  https://openfoam.org
    \\  /    A nd           | Version:  6
     \\/     M anipulation  |
\*---------------------------------------------------------------------------*/
FoamFile
{
    version     2.0;
    format      ascii;
    class       dictionary;
    location    "system";
    object      controlDict;
}
// * * * * * * * * * * * * * * * * * * * * * * * * * * * * * * * * * * * * * //

application     sprayFoam;

startFrom       startTime;

startTime       0.018;

stopAt          endTime;

endTime         0.032;

deltaT         1e-5;

writeControl    timeStep;

writeInterval   5000;

purgeWrite      0;

writeFormat     binary;

writePrecision  12;

writeCompression off;

timeFormat      general;

timePrecision   9;

adjustTimeStep  no;

runTimeModifiable yes;

functions
{
    T_p_average
    {
        type            volFieldValue;
        libs            ("libfieldFunctionObjects.so");
        log             true;
        writeControl    timeStep;
	writeFields	false;
	writeOutput	1;
        operation       average;
        fields
        (
            p
            T
        );
    }
}

// ************************************************************************* //
